70
C70 D5h 
  C         -0.726400        0.999800       -3.954300
  C          0.726400        0.999800       -3.954300
  C          1.175300       -0.381900       -3.954300
  C         -1.414100        1.946300       -3.209800
  C          1.414100        1.946300       -3.209800
  C          2.288000       -0.743400       -3.209800
  C         -0.688800        2.926400       -2.433800
  C          0.688800        2.926400       -2.433800
  C          2.570300        1.559400       -2.433800
  C          2.996000        0.249200       -2.433800
  C          2.277400       -1.962600       -2.433800
  C         -1.409500        3.153000       -1.198900
  C          1.409500        3.153000       -1.198900
  C          2.563100        2.314800       -1.198900
  C          3.434200       -0.366100       -1.198900
  C          2.993500       -1.722400       -1.198900
  C         -0.731200        3.472800        0.000000
  C          0.731200        3.472800        0.000000
  C          3.076900        1.768600        0.000000
  C          3.528800        0.377700        0.000000
  C          2.632800       -2.379800        0.000000
  C         -1.175300       -0.381900       -3.954300
  C          0.000000       -1.235800       -3.954300
  C         -2.570300        1.559400       -2.433800
  C          1.162800       -2.772400       -2.433800
  C         -2.563100        2.314800       -1.198900
  C         -1.409500        3.153000        1.198900
  C          1.409500        3.153000        1.198900
  C          2.563100        2.314800        1.198900
  C          3.434200       -0.366100        1.198900
  C          2.993500       -1.722400        1.198900
  C          1.449700       -3.239300        0.000000
  C         -2.288000       -0.743400       -3.209800
  C          0.000000       -2.405800       -3.209800
  C         -2.996000        0.249200       -2.433800
  C          0.713000       -3.379300       -1.198900
  C         -3.076900        1.768600        0.000000
  C         -0.688800        2.926400        2.433800
  C         -2.563100        2.314800        1.198900
  C          0.688800        2.926400        2.433800
  C          2.570300        1.559400        2.433800
  C          2.996000        0.249200        2.433800
  C          2.277400       -1.962600        2.433800
  C          0.713000       -3.379300        1.198900
  C         -2.277400       -1.962600       -2.433800
  C         -1.162800       -2.772400       -2.433800
  C         -3.434200       -0.366100       -1.198900
  C         -0.713000       -3.379300       -1.198900
  C         -3.528800        0.377700        0.000000
  C         -1.414100        1.946300        3.209800
  C         -2.570300        1.559400        2.433800
  C          1.414100        1.946300        3.209800
  C          2.288000       -0.743400        3.209800
  C          1.162800       -2.772400        2.433800
  C         -0.713000       -3.379300        1.198900
  C         -2.993500       -1.722400       -1.198900
  C         -1.449700       -3.239300        0.000000
  C         -3.434200       -0.366100        1.198900
  C         -0.726400        0.999800        3.954300
  C         -2.996000        0.249200        2.433800
  C          0.726400        0.999800        3.954300
  C          1.175300       -0.381900        3.954300
  C          0.000000       -2.405800        3.209800
  C         -1.162800       -2.772400        2.433800
  C         -2.632800       -2.379800        0.000000
  C         -2.993500       -1.722400        1.198900
  C         -1.175300       -0.381900        3.954300
  C         -2.288000       -0.743400        3.209800
  C          0.000000       -1.235800        3.954300
  C         -2.277400       -1.962600        2.433800
