49
[Co(hexacyclen)]3+ S6
 Co          0.000000       -0.000000        0.000000
  N          1.599100        0.624600        1.018900
  C          2.595500       -0.477400        1.009700
  C          2.190600        1.873800        0.423900
  H          1.360400        0.762000        1.885800
  H          2.286800       -1.204300        1.625200
  H          3.492600       -0.162300        1.369600
  H          3.210300        1.853500        0.454300
  H          1.906800        2.686700        0.942000
  N         -1.599100       -0.624600       -1.018900
  N         -1.340500        1.072500        1.018900
  N          1.340500       -1.072500       -1.018900
  N         -0.258600       -1.697200        1.018900
  N          0.258600        1.697200       -1.018900
  C          2.718000       -0.960200       -0.423900
  C          1.711200        2.009000       -1.009700
  C         -2.595500        0.477400       -1.009700
  C         -2.190600       -1.873800       -0.423900
  H         -1.360400       -0.762000       -1.885800
  C         -0.884200        2.486500        1.009700
  C         -2.718000        0.960200        0.423900
  H         -1.340200        0.797200        1.885800
  C          0.884200       -2.486500       -1.009700
  H          1.340200       -0.797200       -1.885800
  C         -1.711200       -2.009000        1.009700
  C          0.527500       -2.834000        0.423900
  H         -0.020300       -1.559200        1.885800
  C         -0.527500        2.834000       -0.423900
  H          0.020300        1.559200       -1.885800
  H          3.210300       -1.853500       -0.454300
  H          3.280100       -0.308000       -0.942000
  H          2.186300        1.378300       -1.625200
  H          1.886800        2.943500       -1.369600
  H         -2.286800        1.204300       -1.625200
  H         -3.492600        0.162300       -1.369600
  H         -3.210300       -1.853500       -0.454300
  H         -1.906800       -2.686700       -0.942000
  H         -0.100500        2.582600        1.625200
  H         -1.605800        3.105800        1.369600
  H         -3.210300        1.853500        0.454300
  H         -3.280100        0.308000        0.942000
  H          0.100500       -2.582600       -1.625200
  H          1.605800       -3.105800       -1.369600
  H         -2.186300       -1.378300        1.625200
  H         -1.886800       -2.943500        1.369600
  H          0.000000       -3.707000        0.454300
  H          1.373400       -2.994700        0.942000
  H          0.000000        3.707000       -0.454300
  H         -1.373400        2.994700       -0.942000