37
Co(en)3 3+
Co           0        0.000029    0.003147    0.000214
 N           0       -0.936093   -1.377842   -1.115139
 H           0       -0.509781   -2.304648   -1.030297
 N           0       -1.641104   -0.104330    1.147646
 H           0       -1.463369   -0.120683    2.156151
 H           0       -2.248384    0.710827    1.024287
 N           0        0.939843   -1.375232    1.115719
 H           0        0.907006   -1.189342    2.122197
 N           0        1.641368   -0.100034   -1.147224
 H           0        1.463874   -0.115399   -2.155789
 H           0        2.247375    0.715898   -1.022727
 N           0        0.780607    1.494377    1.093063
 H           0        0.283972    1.601309    1.982303
 N           0       -0.784496    1.492240   -1.092767
 H           0       -0.289015    1.599546   -1.982598
 H           0       -1.759102    1.359455   -1.376409
 H           0       -0.902338   -1.193298   -2.121837
 H           0        0.514917   -2.302847    1.032750
 H           0        1.755197    1.363771    1.377801
 C           0       -2.388087   -1.497040   -0.706707
 H           0       -2.954815   -0.712523   -1.217168
 H           0       -2.802628   -2.456210   -1.030524
 C           0       -2.445373   -1.336834    0.798939
 H           0       -2.000658   -2.193326    1.314282
 H           0       -3.474076   -1.240199    1.158542
 C           0        0.668395    2.806863    0.350963
 H           0        0.767703    3.650418    1.040446
 H           0        1.494081    2.872889   -0.364181
 C           0       -0.674371    2.805459   -0.351611
 H           0       -0.775163    3.648349   -1.041686
 H           0       -1.500130    2.870578    0.363544
 C           0        2.391665   -1.492433    0.705874
 H           0        2.957768   -0.707277    1.216060
 H           0        2.807749   -2.451140    1.029053
 C           0        2.447550   -1.331600   -0.799761
 H           0        2.003652   -2.188466   -1.315166
 H           0        3.475862   -1.233385   -1.160068