12
cyclobutane D4h 
  C          1.072000        0.000000        0.000000
  C          0.000000        1.072000        0.000000
  H          1.661800        0.000000        0.642200
  H          0.000000        1.661800        0.642200
  C          0.000000       -1.072000        0.000000
  H          1.661800        0.000000       -0.642200
  C         -1.072000        0.000000        0.000000
  H          0.000000        1.661800       -0.642200
  H          0.000000       -1.661800       -0.642200
  H          0.000000       -1.661800        0.642200
  H         -1.661800        0.000000       -0.642200
  H         -1.661800        0.000000        0.642200
