6
trans-1,2-difluoroethylene C2h 
  F         -1.760700       -0.092900        0.000000
  C         -0.513000        0.409200        0.000000
  H         -0.388900        1.492300        0.000000
  C          0.513000       -0.409200        0.000000
  F          1.760700        0.092900        0.000000
  H          0.388900       -1.492300        0.000000
