21
ferrocene_eclipsed D5h 
 Fe         -0.000001       -0.000019       -0.000000
  C         -0.000001        1.215481       -1.657900
  C          0.714499       -0.983319       -1.657900
  C          1.155999        0.375681       -1.657900
  C         -0.000001        1.215481        1.657900
  C          0.714399       -0.983319        1.657900
  C          1.155899        0.375581        1.657900
  H         -0.000001        2.295481       -1.658300
  H          1.349299       -1.857219       -1.658300
  H          2.183199        0.709381       -1.658200
  H         -0.000001        2.295481        1.658300
  H          1.349199       -1.857119        1.658300
  H          2.183099        0.709281        1.658300
  C         -0.714401       -0.983319       -1.657900
  C         -1.156001        0.375681       -1.657900
  C         -0.714401       -0.983419        1.657900
  C         -1.156001        0.375581        1.657900
  H         -1.349201       -1.857119       -1.658300
  H         -2.183101        0.709381       -1.658300
  H         -1.349301       -1.857119        1.658200
  H         -2.183101        0.709281        1.658300
