9
Ge9]4- C4v 
 Ge          0.000000        0.000000       -2.417556
 Ge          1.397100       -1.397100       -0.760656
 Ge          1.397100        1.397100       -0.760656
 Ge         -1.397100        1.397100       -0.760656
 Ge         -1.397100       -1.397100       -0.760656
 Ge          0.000000       -1.829200        1.365044
 Ge          1.829200        0.000000        1.365044
 Ge          0.000000        1.829200        1.365044
 Ge         -1.829200        0.000000        1.365044
