10
l32_S
Eu    -13.71191     1.74677     4.46057
N     -15.41837    -0.10731     4.68152
N     -11.26343     1.11168     4.45791
N     -14.42756     4.14791     4.24989
O     -15.50689     2.11468     6.10054
O     -12.32975     2.76345     2.69913
O     -13.41307    -0.13748     2.98238
O     -13.00830     0.26832     6.23368
O     -12.47686     3.33661     5.82226
O     -15.54625     2.16738     2.92256
10
l33_S
Eu     -2.11044     1.21368    -2.17651
N      -0.40854     2.97434    -1.57107
N      -3.28971     0.16223    -0.14335
N      -2.89285     0.29534    -4.39671
O      -2.22363     3.21258    -3.44417
O      -0.47506     0.56032    -0.54188
O      -2.43046    -1.26095    -2.20502
O      -2.81733     2.75683    -0.35246
O      -4.49996     1.17646    -2.50847
O      -0.38974     0.68457    -3.72784
10
l34_S
Eu      0.20364    -1.32776    -0.06186
N       0.15998     1.16963    -0.22734
N       0.71615    -2.95407    -1.90907
N      -0.29121    -2.48299     2.13817
O      -1.74802    -0.26209     0.87689
O       2.10066    -0.33817    -1.15496
O       1.86444    -3.00579     0.45010
O      -0.91113    -0.89474    -2.14400
O       1.22351    -0.33221     1.88776
O      -1.37778    -3.25986    -0.14039
10
l_37S
Eu     -6.58785    -6.24102    -6.93010
N      -6.62258    -4.58387    -5.02903
N      -5.53338    -8.51619    -6.61697
N      -7.62088    -5.80413    -9.18252
O      -4.50867    -5.98841    -5.71075
O      -8.67309    -5.03265    -6.61699
O      -7.20390    -7.42317    -4.89601
O      -5.02250    -6.93293    -8.64754
O      -5.96789    -4.15105    -7.96565
O      -8.15984    -7.92171    -7.71892
10
l38_S
Eu     -1.77471    -9.83335     2.88427
N      -1.29574    -7.73796     1.60621
N      -1.72784   -12.14264     1.84414
N      -2.48142    -9.93520     5.29744
O      -2.87733    -9.64750     0.72541
O      -0.30731    -8.26112     3.99420
O       0.17653   -10.32093     1.50020
O      -3.80163   -11.27060     3.23361
O      -0.51759   -11.35917     4.29609
O      -3.43047    -8.20959     3.54350
10
x1_S
Eu     -0.04868    -0.15768    -0.29299
N       1.80130     1.67660    -0.28177
N      -2.54104     0.74050    -0.27099
N       0.59960    -2.67309    -0.09531
O       1.61027    -0.59127     1.47229
O      -0.25805     1.47533    -1.89195
O      -0.36616     1.68393     1.30029
O      -1.58022    -1.31104    -1.55961
O      -1.31814    -1.24731     1.44059
O       1.64756    -0.87634    -1.67783
10
x2_S
Eu     -0.09688     0.18056     0.17586
N       0.91915     2.60535     0.03377
N       1.38908    -2.02289     0.03580
N      -2.61626    -0.41687     0.79038
O      -1.37971     1.71474    -0.92392
O       1.85827     0.47925     1.58497
O       1.57095     0.21021    -1.39182
O      -0.36293    -1.32471     2.03076
O      -1.05871    -1.49745    -1.07822
O      -0.91528     1.45031     2.04216
10
x3_3
Eu     -0.03764    -0.02441    -0.09898
N       2.11294    -1.12429     0.86759
N      -2.16575     0.49320     1.31494
N      -0.05589     1.02791    -2.51339
O       0.98558    -1.54598    -1.46993
O       0.57233     0.90471     2.10615
O      -0.67364    -1.69676     1.35818
O      -0.71115     2.30312    -0.17783
O      -1.95729    -0.38671    -1.33704
O       1.93416     1.29278    -0.56213
