60
snubdodecahedron i
  H          0.816000       -0.742067        1.194000
  H         -0.292000       -1.466067        0.642000
  H         -0.454000       -1.006067        1.194000
  H          1.260000       -0.102067        1.024000
  H         -1.304000       -0.900067        0.366000
  H         -0.162000       -1.612067       -0.130000
  H         -0.626000       -1.356067       -0.642000
  H          1.304000        0.729933       -0.642000
  H          0.454000        1.517933       -0.366000
  H          0.486000       -1.166067       -1.024000
  H         -0.486000        0.393933        1.500000
  H          0.958000        0.547933        1.194000
  H         -1.080000       -0.658067        1.024000
  H          0.626000       -0.032067        1.500000
  H          0.292000       -1.230067        1.024000
  H          0.162000       -0.604067        1.500000
  H         -0.524000       -0.342067        1.500000
  H          0.524000       -1.494067       -0.366000
  H         -0.816000       -1.400067        0.130000
  H         -1.304000        0.899933       -0.366000
  H          0.224000       -0.584067       -1.500000
  H          0.958000       -0.548067       -1.194000
  H          0.816000        0.741933       -1.194000
  H         -0.454000        1.005933       -1.194000
  H          1.260000        0.101933       -1.024000
  H          0.292000        1.229933       -1.024000
  H          0.162000        0.603933       -1.500000
  H         -1.080000        0.657933       -1.024000
  H         -0.224000       -1.080067       -1.194000
  H          0.626000        0.031933       -1.500000
  H         -1.260000       -0.958067       -0.366000
  H         -1.484000        0.175933       -0.642000
  H         -1.584000        0.343933        0.130000
  H         -0.816000        1.399933       -0.130000
  H         -1.260000        0.957933        0.366000
  H         -0.224000        1.079933        1.194000
  H          0.224000        0.583933        1.500000
  H         -0.958000        0.823933        1.024000
  H         -1.098000        0.119933        1.194000
  H          1.098000        1.013933        0.642000
  H         -0.162000        1.611933        0.130000
  H          1.080000        1.209933       -0.130000
  H          1.484000       -0.652067       -0.130000
  H         -1.484000       -0.176067        0.642000
  H         -1.584000       -0.342067       -0.130000
  H          1.484000        0.651933        0.130000
  H          1.584000       -0.038067        0.366000
  H          1.080000       -1.210067        0.130000
  H          0.486000        1.165933        1.024000
  H          1.304000       -0.730067        0.642000
  H          0.454000       -1.518067        0.366000
  H         -0.626000        1.355933        0.642000
  H         -0.524000        0.343933       -1.500000
  H         -0.486000       -0.394067       -1.500000
  H         -1.098000       -0.120067       -1.194000
  H         -0.958000       -0.824067       -1.024000
  H         -0.292000        1.465933       -0.642000
  H          1.098000       -1.014067       -0.642000
  H          0.524000        1.493933        0.366000
  H          1.584000        0.037933       -0.366000